             ********************************************
             *                                          *
             *           Tight Binding Code             *
             *                                          *
             *           (steepest descent)             *
             *             (version 1.0)                *
             *                                          *
             ********************************************

        |-\____|\/-----\/\/->    Input Data    <-\/\/-----\/|____/-|

  Tight Binding Parameterization: ho

  elements involved in the cluster:
      1: C      mass no.:  12.0   core charge: 2   valence charge: 4

  positions of the ions: (bohrs)
      1 C	  (  -0.736827   -0.736827   -0.736827 )
      2 C	  (   0.736827    0.736827    0.736827 )
      G.C.	  (   0.000000    0.000000    0.000000 )
      C.M.	  (   0.000000    0.000000    0.000000 )

  Number of Electrons: 8   ispin: 1
  Charge of Cluster  : 0

  technical parameters: time step = 1.580e+01, tolerence = 1.000e-09

        |-\____|\/-----\/\/-> iteration started<-\/\/-----\/|____/-|
   100    2.726161e-01   7.777486e-01  -5.051325e-01   2.950640e-12  
        |-\____|\/-----\/\/-> tolerences ok    <-\/\/-----\/|____/-|


        |-\____|\/-----\/\/->   Output Data    <-\/\/-----\/|____/-|

  positions of the ions: (bohrs)
      1 C	  (  -0.736826   -0.736826   -0.736826 )
      2 C	  (   0.736826    0.736826    0.736826 )
      G.C.	  (   0.000000    0.000000    0.000000 )
      C.M.	  (   0.000000    0.000000    0.000000 )


     Total Energy  :   2.726161e-01
     Core Energy   :   7.777486e-01
     Valence Energy:  -5.051325e-01
     U term Energy :   4.410000e-01

 orbital energies: 2*S+1=1
 ------------------------------
  1 ****       ****      0.579517
  2 ****       ****      0.219154
  3 ****       ****      0.219154
  4 ****       ****      0.053530
  5 ****  + -  ****      0.053530
  6 ****  + -  ****      0.007928
  7 ****  + -  ****      0.006783
  8 ****  + -  ****     -0.541308

>--<>--/~~\--<>--/~~\--<>--<
cpu time in seconds      :( 
prologue     : 0.000000e+00
main loop    : 0.000000e+00
epilogue     : 0.000000e+00
total        : 0.000000e+00
cputime/step : 0.000000e+00
>--<>--\__/--<>--\__/--<>--<
